data/projects/lehigh3mgs/circuit_plus_mgAll.dss
clear
set defaultbasefrequency=60
new object=circuit.lehigh basekv=115 pu=1.0001 phases=3 bus1=sourcebus angle=30 mvasc3=20000 mvasc1=21000
edit object=vsource.source basekv=115 bus1=sourcebus.1.2.3 pu=1.00 r1=0 x1=0.0001 r0=0 x0=0.0001
new object=vsource.secondsource basekv=4.16 bus1=680.1.2.3 pu=1.00 r1=0 x1=0.0001 r0=0 x0=0.0001
new object=transformer.sub phases=3 windings=2 xhl=0.008 buses=[sourcebus.1.2.3,650.1.2.3] conns=[delta,wye] kvs=[115,4.16] kvas=[5000,5000] %rs=[0.0005,0.0005]
new object=transformer.reg1 phases=1 bank=reg1 xhl=0.01 kvas=[1666,1666] buses=[650.1,rg60.1] kvs=[2.4,2.4] %loadloss=0.01
new object=regcontrol.reg1 transformer=reg1 winding=2 vreg=121 band=2 ptratio=20 ctprim=700 r=3 x=9
new object=transformer.reg2 phases=1 bank=reg1 xhl=0.01 kvas=[1666,1666] buses=[650.2,rg60.2] kvs=[2.4,2.4] %loadloss=0.01
new object=regcontrol.reg2 transformer=reg2 winding=2 vreg=121 band=2 ptratio=20 ctprim=700 r=3 x=9
new object=transformer.reg3 phases=1 bank=reg1 xhl=0.01 kvas=[1666,1666] buses=[650.3,rg60.3] kvs=[2.4,2.4] %loadloss=0.01
new object=regcontrol.reg3 transformer=reg3 winding=2 vreg=121 band=2 ptratio=20 ctprim=700 r=3 x=9
new object=transformer.xfm1 phases=3 windings=2 xhl=2 buses=[633.1.2.3,634.1.2.3] conns=[wye,wye] kvs=[4.16,0.480] kvas=[500,500] %rs=[0.55,0.55] xht=1 xlt=1
new object=linecode.mtx601 nphases=3 basefreq=60 rmatrix=[0.3465|0.1560,0.3375|0.1580,0.1535,0.3414] xmatrix=[1.0179|0.5017,1.0478|0.4236,0.3849,1.0348] units=mi
new object=linecode.mtx602 nphases=3 basefreq=60 rmatrix=[0.7526|0.1580,0.7475|0.1560,0.1535,0.7436] xmatrix=[1.1814|0.4236,1.1983|0.5017,0.3849,1.2112] units=mi
new object=linecode.mtx603 nphases=2 basefreq=60 rmatrix=[1.3238|0.2066,1.3294] xmatrix=[1.3569|0.4591,1.3471] units=mi
new object=linecode.mtx604 nphases=2 basefreq=60 rmatrix=[1.3238|0.2066,1.3294] xmatrix=[1.3569|0.4591,1.3471] units=mi
new object=linecode.mtx605 nphases=1 basefreq=60 rmatrix=[1.3292] xmatrix=[1.3475] units=mi
new object=linecode.mtx606 nphases=3 units=mi rmatrix=[0.791721|0.318476,0.781649|0.28345,0.318476,0.791721] xmatrix=[0.438352|0.0276838,0.396697|-0.0184204,0.0276838,0.438352] cmatrix=[383.948|0,383.948|0,0,383.948]
new object=linecode.mtx607 nphases=1 basefreq=60 rmatrix=[1.3425] xmatrix=[0.5124] cmatrix=[236] units=mi
new object=loadshape.solar_634_shape npts=8760 interval=1 useactual=yes mult=[0.0,0.0,0.0,0.0,0.0,0.0,0.0,0.0,175.1271354200672,407.6902934069392,561.486507597398,646.1298800606585,679.3997332738629,654.253913984813,579.4541111432151,449.9248260970149,243.74675927699465,16.281899602836646,0.0,0.0,0.0,0.0,0.0,0.0,0.0,0.0,0.0,0.0,0.0,0.0,0.0,0.0,64.6966112775828,216.66149788600785,371.4917870083298,458.3871775664447,531.6888220608126,625.4020466291496,380.2556823768095,413.01805927210086,209.6494990237147,7.417979916623471,0.0,0.0,0.0,0.0,0.0,0.0,0.0,0.0,0.0,0.0,0.0,0.0,0.0,0.0,82.11628749463881,359.879405003217,511.5214189977815,602.0544586405305,638.6192305555466,615.6195212602214,308.92878268475505,347.53228554651713,169.09552196614797,6.733254623903219,0.0,0.0,0.0,0.0,0.0,0.0,0.0,0.0,0.0,0.0,0.0,0.0,0.0,0.0,122.0877699959924,360.19712930660603,521.3466017963312,450.7103111803932,367.54891666002345,240.5246523947095,563.6068760387648,261.3164719706509,142.09263354270652,5.456473626951173,0.0,0.0,0.0,0.0,0.0,0.0,0.0,0.0,0.0,0.0,0.0,0.0,0.0,0.0,79.78630926978624,271.0784040976927,342.617855464931,451.4656418738665,437.61668670531407,362.2446859284462,368.221138913027,281.0543588457674,136.04042684690097,10.94751448135439,0.0,0.0,0.0,0.0,0.0,0.0,0.0,0.0,0.0,0.0,0.0,0.0,0.0,0.0,65.71009296755972,86.59384665906512,230.6935858127636,139.71926241530775,293.8523232051928,312.1244125417577,258.5533001932611,138.99923442221095,94.4648778971877,16.459148577643926,0.0,0.0,0.0,0.0,0.0,0.0,0.0,0.0,0.0,0.0,0.0,0.0,0.0,0.0,191.12955531158943,446.751995900672,625.9102584199869,730.8475352892947,767.9867115583543,744.2677097428568,664.2607585957171,522.9484618259174,297.54145539454277,30.85897296665552,0.0,0.0,0.0,0.0,0.0,0.0,0.0,0.0,0.0,0.0,0.0,0.0,0.0,0.0,53.185724536052575,315.0523302542382,429.15139334418615,461.240077040625,298.02024826839977,303.4333289928048,335.3712407397187,203.30825146857617,135.3042184494649,7.017147172764678,0.0,0.0,0.0,0.0,0.0,0.0,0.0,0.0,0.0,0.0,0.0,0.0,0.0,0.0,4.686433474987583,9.354480126862375,33.11540389905695,124.35082018471444,162.11441296668437,115.77373493906076,49.507624440570325,24.75307674736065,56.59758343286164,1.1524860727095954,0.0,0.0,0.0,0.0,0.0,0.0,0.0,0.0,0.0,0.0,0.0,0.0,0.0,0.0,3.1448822252113784,82.42150875831112,90.725733548971,93.44918978843728,107.41140778736448,170.56205497762403,252.64524619065983,187.87141025600332,71.58652163440699,3.034561286534646,0.0,0.0,0.0,0.0,0.0,0.0,0.0,0.0,0.0,0.0,0.0,0.0,0.0,0.0,170.1847573673496,418.55617039367274,593.0257930192266,697.2349516932679,737.1343578480194,717.1603841641347,640.2961088234329,508.2037006353099,293.7331765914219,35.73368751031806,0.0,0.0,0.0,0.0,0.0,0.0,0.0,0.0,0.0,0.0,0.0,0.0,0.0,0.0,176.9680241501196,421.0663394850307,588.3062632626361,689.373481603164,639.1333261297801,603.2231251175793,635.3824142147712,500.9842984083045,291.01119129780466,39.400020039008126,0.0,0.0,0.0,0.0,0.0,0.0,0.0,0.0,0.0,0.0,0.0,0.0,0.0,0.0,76.15454396854821,247.7352289466207,469.42368427166497,495.6756548391802,542.1663693434041,592.6345214233866,502.001457462904,408.19556330607867,263.41477622428243,36.941334052366024,0.0,0.0,0.0,0.0,0.0,0.0,0.0,0.0,0.0,0.0,0.0,0.0,0.0,0.0,78.99052756546473,324.21043911025595,338.61541180973916,644.0955619514596,689.5602917259898,675.0398497773584,603.9122632478466,473.945371811562,259.1416785328703,38.75868764883405,0.0,0.0,0.0,0.0,0.0,0.0,0.0,0.0,0.0,0.0,0.0,0.0,0.0,0.0,91.70244159272234,231.97919248480983,379.4731391851291,409.57016220199074,445.0883561454269,428.245290701188,343.67252363868056,221.45016209750253,202.3947940963328,34.48338353864843,0.0,0.0,0.0,0.0,0.0,0.0,0.0,0.0,0.0,0.0,0.0,0.0,0.0,0.0,70.60319433433506,334.83949381529686,582.000318407874,679.1680593026417,719.2903137535201,702.6450905259749,629.4728892663209,373.0098031245217,299.9795481392985,56.14673853013606,0.0,0.0,0.0,0.0,0.0,0.0,0.0,0.0,0.0,0.0,0.0,0.0,0.0,0.0,9.310351751391684,220.94121483374053,207.0937306110371,212.10156575403624,308.8191972190028,497.7018827462095,251.732524291341,183.49313993638603,23.902134573700796,0.3765621373499124,0.0,0.0,0.0,0.0,0.0,0.0,0.0,0.0,0.0,0.0,0.0,0.0,0.0,0.0,120.5778440819702,133.95977394345783,70.84663587234837,87.66690165592746,697.5820949136373,681.9194635132394,336.98045549855,484.042679592181,285.4620480823651,56.795425649555256,0.0,0.0,0.0,0.0,0.0,0.0,0.0,0.0,0.0,0.0,0.0,0.0,0.0,0.0,0.0,61.619392561426494,232.0093468747148,616.326310740677,667.3048810302704,250.8168605003241,165.14676783444548,191.7010177739349,71.7468547319505,59.262201838366984,0.0,0.0,0.0,0.0,0.0,0.0,0.0,0.0,0.0,0.0,0.0,0.0,0.0,0.0,187.31759914384608,443.11949512650943,613.5749065300794,711.3413223853993,746.8779031519483,730.5783521989234,663.4098164220572,534.4608195132967,323.0351533768865,72.58014555542209,0.0,0.0,0.0,0.0,0.0,0.0,0.0,0.0,0.0,0.0,0.0,0.0,0.0,0.0,54.764784904978875,146.5356254796808,383.39026798107767,677.244797605044,724.5496806367023,715.8843386401071,649.7263426615199,521.4319166555746,319.5688694836636,74.19745051642299,0.0,0.0,0.0,0.0,0.0,0.0,0.0,0.0,0.0,0.0,0.0,0.0,0.0,0.0,182.6091014811232,424.92389497409374,595.0932074100286,703.3003969017146,748.7423270155851,732.8980338028327,660.2619923051478,527.0487233800692,319.3298407831973,75.27344740498337,0.0,0.0,0.0,0.0,0.0,0.0,0.0,0.0,0.0,0.0,0.0,0.0,0.0,0.0,180.55639654881148,430.478186500005,611.0934208827774,722.9941554013604,769.8673158263304,753.4353797468933,681.3060790941968,549.0606925377754,341.88164706749495,86.15844668775429,0.0,0.0,0.0,0.0,0.0,0.0,0.0,0.0,0.0,0.0,0.0,0.0,0.0,0.0,49.43039978349662,169.97073474631677,566.994464329065,470.5805831819216,712.2172706384926,588.3812815009362,620.780334771519,428.02906166138155,266.42506690430815,57.05872495653039,0.0,0.0,0.0,0.0,0.0,0.0,0.0,0.0,0.0,0.0,0.0,0.0,0.0,0.0,51.31909425364227,304.68289749154985,331.06504676670363,501.4689750655576,716.5712703516009,708.9414742327182,532.3433929636279,497.9637111073356,289.97711636594147,65.81158823114231,0.0,0.0,0.0,0.0,0.0,0.0,0.0,0.0,0.0,0.0,0.0,0.0,0.0,0.0,102.22338177786004,204.0503436494083,326.2888855949256,251.62661619021137,133.6332239649747,39.91558655909072,115.6156082602908,221.57225060297145,90.51244640086264,29.812394995075586,0.0,0.0,0.0,0.0,0.0,0.0,0.0,0.0,0.0,0.0,0.0,0.0,0.0,0.0,151.98474437738685,274.0828109943224,187.9942342343967,555.7123096670579,759.4368388109076,759.276505713364,695.6956068622653,565.2425678228784,352.903444314225,97.8399631477712,0.0,0.0,0.0,0.0,0.0,0.0,0.0,0.0,0.0,0.0,0.0,0.0,0.0,0.0,212.3928130321428,483.6278728627565,667.6446695213948,776.5571775476874,816.2359418250852,797.1989606470283,717.396470972903,583.2704801485055,373.862951716955,108.77938742695596,0.0,0.0,0.0,0.0,0.0,0.0,0.0,0.0,0.0,0.0,0.0,0.0,0.0,0.0,108.09245571546218,452.8225894195903,501.5594382352726,560.5024448244014,563.4781682769752,589.8419307290162,505.8722514646082,365.9654434535501,220.83457125968633,94.133179608233,0.0,0.0,0.0,0.0,0.0,0.0,0.0,0.0,0.0,0.0,0.0,0.0,0.0,0.0,21.43388743904004,103.43544115745506,127.16547506682014,357.0287119478102,380.9087823337757,201.0657945217405,158.71799900129005,88.46636072487152,187.5036737937475,43.39731538372838,0.0,0.0,0.0,0.0,0.0,0.0,0.0,0.0,0.0,0.0,0.0,0.0,0.0,0.0,34.033274108847365,220.75955302138615,439.6282051538532,413.3931504636017,353.57051825675694,430.8040010055636,399.33017267401647,336.4538568845997,103.5913614174515,8.113001830286883,0.0,0.0,0.0,0.0,0.0,0.0,0.0,0.0,0.0,0.0,0.0,0.0,0.0,0.0,172.26614574371726,402.5022673974347,125.6709940842127,185.03763307786028,276.57900610011455,374.873491515234,291.15166662638643,512.3046976623863,328.1135939206387,98.03045063521968,0.0,0.0,0.0,0.0,0.0,0.0,0.0,0.0,0.0,0.0,0.0,0.0,0.0,0.0,53.10555798728082,153.48290272461685,172.7162551735183,236.77006311507805,520.0109829654183,456.6632290313896,425.3078118406888,221.3096867689208,137.2399831867793,94.89512955802697,0.0,0.0,0.0,0.0,0.0,0.0,0.0,0.0,0.0,0.0,0.0,0.0,0.0,0.0,182.79885349564717,412.15387858579976,81.46980679399317,140.1929069786932,145.45006744310174,160.9869329734082,178.38233858395532,127.39420714634323,34.26715449884203,29.153411254713244,0.0,0.0,0.0,0.0,0.0,0.0,0.0,0.0,0.0,0.0,0.0,0.0,0.0,0.0,182.99007645602015,105.70363965664868,271.11591321684284,429.01165348852896,724.4996684778356,716.0424653188772,648.1296309424054,515.9747075556988,324.39430734138386,100.36484169761934,0.0,0.0,0.0,0.0,0.0,0.0,0.0,0.0,0.0,0.0,0.0,0.0,0.0,0.0,49.26491837548151,18.615555192311785,563.0258524284006,669.2391748217358,716.5080196800931,351.53178731001094,650.8148425897971,530.8533248185674,346.7526842465349,111.202035240297,0.0,0.0,0.0,0.0,0.0,0.0,0.0,0.0,0.0,0.0,0.0,0.0,0.0,0.0,73.03172593107219,282.7599205577096,388.97471389689383,381.7479569406434,140.76216302226513,137.2451314972509,221.2346685306206,3.932573727363246,50.45417809441669,9.239746350638574,0.0,0.0,0.0,0.0,0.0,0.0,0.0,0.0,0.0,0.0,0.0,0.0,0.0,0.0,190.6684137879207,435.1984517295201,606.5908556389177,714.1008167981668,763.7275878525078,753.4375861656669,682.782908726616,559.6794506218731,363.7604956258645,120.47929071008568,0.0,0.0,0.0,0.0,0.0,0.0,0.0,0.0,0.0,0.0,0.0,0.0,0.0,0.0,15.109555761165236,99.45285527122503,403.5812061776931,480.4940227314128,591.0510482169132,374.6977134862756,490.21697479345545,549.9910657872825,365.64036442091594,125.0429002066798,0.0,0.0,0.0,0.0,0.0,0.0,0.0,0.0,0.0,0.0,0.0,0.0,0.0,0.0,210.54751146454333,215.87380638385596,284.0823008759814,713.1013090937555,758.2431662544253,470.69458148522097,675.1192808532056,556.9559943824067,373.7599855075234,130.0029296095857,0.0,0.0,0.0,0.0,0.0,0.0,0.0,0.0,0.0,0.0,0.0,0.0,0.0,1.8975201452397932,205.1050118231579,440.9704432410867,601.4793188135624,701.3072652762883,738.9370019859971,733.1576557451854,657.6790113942633,528.9352114314414,338.80516382426316,112.67077467054656,0.0,0.0,0.0,0.0,0.0,0.0,0.0,0.0,0.0,0.0,0.0,0.0,0.0,1.8372113654298463,70.472280153772,155.02151208269498,206.10231310879556,316.82555547523555,726.1427149911942,715.0525187624846,649.8947659612331,532.4390044438144,191.24943739828484,71.55636724450201,0.0,0.0,0.0,0.0,0.0,0.0,0.0,0.0,0.0,0.0,0.0,0.0,0.0,0.0,0.0,8.590323758294877,40.01928824144685,61.0722007055899,133.1507537264951,161.05459648246324,104.06059314328986,88.72745361307312,69.25654340955441,28.0935947704921,0.0,0.0,0.0,0.0,0.0,0.0,0.0,0.0,0.0,0.0,0.0,0.0,0.0,2.1262522247628843,2.4167640299449458,118.56264826880856,227.28540428057715,578.8701456411529,827.9078971370835,823.2302893371901,750.0647073338569,618.2995845971415,416.2489918294801,152.10242004530866,0.0,0.0,0.0,0.0,0.0,0.0,0.0,0.0,0.0,0.0,0.0,0.0,0.0,7.148796826252244,240.05468519594663,487.9031769729421,650.9582598100768,757.8923456694332,807.7132815758455,796.1339958523358,727.3319747101294,455.41660242434256,395.3372901668432,142.75750106646495,0.0,0.0,0.0,0.0,0.0,0.0,0.0,0.0,0.0,0.0,0.0,0.0,0.0,8.265980198585286,247.48884551690935,506.2252784683738,679.0275839740601,786.7979025485862,832.992221464232,816.6889931465844,742.6268696482715,608.5641294953822,413.9763804927394,156.5608569136977,0.0,0.0,0.0,0.0,0.0,0.0,0.0,0.0,0.0,0.0,0.0,0.0,0.0,9.539819303839286,245.55308077959492,488.38564721142177,648.5451731447544,747.3802311593897,789.0307983474031,774.759681720181,708.068467871323,585.2158060338386,395.9058107374907,150.17180361846587,0.0,0.0,0.0,0.0,0.0,0.0,0.0,0.0,0.0,0.0,0.0,0.0,0.0,8.383655866507132,230.40160306173257,470.3621477233417,631.0181178807197,733.9137219115833,777.7170183496421,762.078657555753,699.4398995209535,569.5119881496679,377.64548896771794,127.33757573115584,0.0,0.0,0.0,0.0,0.0,0.0,0.0,0.0,0.0,0.0,0.0,0.0,0.0,6.745757663619917,207.0429829792458,430.5473209549091,359.8867597324621,403.3245261270387,516.3196443572948,722.8073452785344,578.9672280671884,421.7569485611471,315.34284205942026,101.99464969833694,0.0,0.0,0.0,0.0,0.0,0.0,0.0,0.0,0.0,0.0,0.0,0.0,0.0,9.072793996774452,224.15376056800696,457.7149553134412,617.1831366977328,715.5018927193612,753.4949530537787,755.5748704842974,683.2543468712278,426.33894488085394,372.3243423588769,141.89258490723938,0.0,0.0,0.0,0.0,0.0,0.0,0.0,0.0,0.0,0.0,0.0,0.0,0.0,11.736676929355278,235.7543750063276,466.401626024847,629.8435676202748,728.6036073966098,567.8659997446111,460.9113206433683,392.2100592918202,563.0876321540596,195.99470870723337,142.7479399184463,0.0,0.0,0.0,0.0,0.0,0.0,0.0,0.0,0.0,0.0,0.0,0.0,0.0,0.0,4.5430162547078305,19.53489634795122,45.45369768066267,215.61859727905045,368.68228043669575,247.02034926399548,224.5634189869599,544.9104188247568,160.89132149322165,140.3642721701044,0.0,0.0,0.0,0.0,0.0,0.0,0.0,0.0,0.0,0.0,0.0,0.0,0.0,14.377760201276246,247.5778377407753,488.3062161355744,648.1914106680643,746.6896220832733,782.2894535213303,764.7072377879573,700.9226129367688,581.0037525951609,401.2203380900112,106.55016899276146,0.0,0.0,0.0,0.0,0.0,0.0,0.0,0.0,0.0,0.0,0.0,0.0,0.0,0.0,0.0,63.01237828045137,198.77185447018897,298.87560327960665,133.75604794336812,83.49456375517347,114.9720694513432,132.60576828943206,57.388952299636074,50.33135411602326,0.0,0.0,0.0,0.0,0.0,0.0,0.0,0.0,0.0,0.0,0.0,0.0,0.0,15.948730368032914,22.757738703160825,70.66644500584304,89.60634375786441,382.99458354769047,496.05883623285064,556.9008339130685,257.53981850328415,233.9782078936322,371.3027704667303,88.53181781515303,0.0,0.0,0.0,0.0,0.0,0.0,0.0,0.0,0.0,0.0,0.0,0.0,0.0,19.781279777662583,240.37608686395816,395.71532325004216,621.2532438619799,717.8002456084597,753.7619297253765,741.563375799428,683.7015144093308,146.65035925590456,386.11960800394,153.67486115791436,0.0,0.0,0.0,0.0,0.0,0.0,0.0,0.0,0.0,0.0,0.0,0.0,0.0,0.0,19.990889561148386,90.40506735388396,116.1127879572606,160.02861175276962,174.23206487093665,110.86151127624817,221.26923575807268,138.6263496494836,130.74722820919138,63.835372482979786,0.0,0.0,0.0,0.0,0.0,0.0,0.0,0.0,0.0,0.0,0.0,0.0,0.0,28.81582918236244,212.2979370248808,408.1727636454188,721.6217629242218,827.4666133823766,755.3468738776987,675.6260216981941,583.8522392317941,464.0069261826374,278.0911384329104,71.09816761253131,0.0,0.0,0.0,0.0,0.0,0.0,0.0,0.0,0.0,0.0,0.0,0.0,0.0,43.3855478169362,310.7615812126378,551.7106014847905,701.7897355147678,787.6981214081883,824.5409020886697,809.5196030784459,740.3189556111544,621.0554016452862,441.42717192720846,186.55932655867468,0.0,0.0,0.0,0.0,0.0,0.0,0.0,0.0,0.0,0.0,0.0,0.0,0.0,6.083832031559523,64.33622954457215,166.0778765568771,250.52781964099108,193.5970669733257,231.1429597696402,601.4337194922426,338.97138070520276,505.23312549320775,400.42308543984063,165.70572725707427,0.5942621230053307,0.0,0.0,0.0,0.0,0.0,0.0,0.0,0.0,0.0,0.0,0.0,0.0,49.25020891699128,299.7191907240214,541.4816440506839,698.9971448203975,788.4887548020381,828.5602616211253,812.6034410509228,721.128996064799,584.1574604954665,400.0222526959818,148.5074283902962,0.2596219423525763,0.0,0.0,0.0,0.0,0.0,0.0,0.0,0.0,0.0,0.0,0.0,0.0,51.164644939494835,323.4080381496139,565.9044934549388,725.3667910558346,817.6075988292994,851.4827462593767,835.3221996890844,755.6219407514661,622.6741775521361,433.3009315842803,185.15604421870665,1.5709701667566662,0.0,0.0,0.0,0.0,0.0,0.0,0.0,0.0,0.0,0.0,0.0,0.0,55.96213482608367,314.49999008793003,556.1013748441244,716.1417541636862,811.8657617076376,850.22802945016,828.2623950866982,758.9058273594102,635.6957256806131,449.9240906240903,196.63309920570936,3.5552761170888214,0.0,0.0,0.0,0.0,0.0,0.0,0.0,0.0,0.0,0.0,0.0,0.0,33.732465682722136,286.860917584786,514.7972154035558,390.4132989372384,390.21766313931835,621.5878840426327,737.9632358339438,635.0720446406274,556.6765146710925,426.2624556967048,185.53039993728305,2.7845004922007197,0.0,0.0,0.0,0.0,0.0,0.0,0.0,0.0,0.0,0.0,0.0,0.0,21.91047389412352,187.29332853733723,193.98171931284523,169.6243269988718,181.6927022171818,119.43933199482632,281.27352977727185,92.77476111666016,141.8308051815804,60.905983824650285,7.982823122648338,0.0,0.0,0.0,0.0,0.0,0.0,0.0,0.0,0.0,0.0,0.0,0.0,0.0,56.288684804566806,235.43517975708957,540.1320512342052,720.2133322737822,763.5694611737379,849.7470301575295,724.3613995680273,669.6260335800289,525.7837099499095,368.4336905882108,87.98315501346744,0.0,0.0,0.0,0.0,0.0,0.0,0.0,0.0,0.0,0.0,0.0,0.0,0.0,45.90527805631277,337.69459970825073,579.2342047387862,743.7411111289066,846.5484584088289,888.4821826727791,872.0362726077766,796.5083515709122,667.6255472253574,477.9272222248675,198.35778321368895,2.250547149005336,0.0,0.0,0.0,0.0,0.0,0.0,0.0,0.0,0.0,0.0,0.0,0.0,51.931007726835865,336.83777375119473,564.7144982630792,707.5793783765228,792.1455261827095,820.4376986428197,809.3776568040151,743.4175030421216,613.4189862700829,446.79759522199174,199.89565709884255,4.9320814317744395,0.0,0.0,0.0,0.0,0.0,0.0,0.0,0.0,0.0,0.0,0.0,0.0,49.232557566803,281.15511863642547,388.9666236947242,526.677309553191,541.2940984549334,555.8263079703571,527.8959881891066,413.77265449264974,415.4259976269517,362.28513693929426,145.17205867763636,3.2176940447380216,0.0,0.0,0.0,0.0,0.0,0.0,0.0,0.0,0.0,0.0,0.0,0.0,39.94353453022216,164.69960029634248,291.18035007044233,652.7675232043753,619.1784747419329,516.3711274620107,389.1725561135874,411.6000674736426,286.48361997451167,190.03443612699175,90.82281597500652,0.0,0.0,0.0,0.0,0.0,0.0,0.0,0.0,0.0,0.0,0.0,0.0,0.0,25.437802040080907,219.5717642483,455.1533031173674,408.54491294522165,853.8862717766805,878.0472928198094,888.8315323119223,811.2001587109547,677.791253987956,479.3893423987965,215.06257974811973,7.074514060876578,0.0,0.0,0.0,0.0,0.0,0.0,0.0,0.0,0.0,0.0,0.0,0.0,69.47718528690787,361.9115166936424,594.3408186082534,746.3696913611109,830.7225520191893,863.8475170662649,844.8656963575464,755.6940170980682,638.9516643174258,459.13368258482393,209.42003147126715,7.008321497670539,0.0,0.0,0.0,0.0,0.0,0.0,0.0,0.0,0.0,0.0,0.0,0.0,95.95347509639907,368.0674250718041,603.0716176951298,757.9129389113197,849.6536250961166,883.7317630533593,865.4354031102853,786.2433559635044,650.5566915932935,461.5232341165619,210.70784456208685,7.002437714274446,0.0,0.0,0.0,0.0,0.0,0.0,0.0,0.0,0.0,0.0,0.0,0.0,86.74241218981646,370.8070617156096,591.4511454878474,736.1348501436082,828.9449139606447,867.9580752413599,858.7543670640224,792.1264038866723,664.4725747979764,480.75511561961446,223.53669878434175,8.299076480188305,0.0,0.0,0.0,0.0,0.0,0.0,0.0,0.0,0.0,0.0,0.0,0.0,87.27857195178537,347.37562981359616,556.1602126780853,693.0199563628922,774.0021446079342,810.076356082301,795.5801847401787,651.9813026480724,229.5433061588276,205.18959120947673,49.45246397123197,1.2789874157255816,0.0,0.0,0.0,0.0,0.0,0.0,0.0,0.0,0.0,0.0,0.0,0.0,15.88033138605334,191.12367152819337,290.39192309536594,234.07234842796973,374.1063932549684,419.6932115349677,606.230473905907,717.9171858034571,468.7433718164918,372.91272069848617,180.0055273283523,6.735461042676754,0.0,0.0,0.0,0.0,0.0,0.0,0.0,0.0,0.0,0.0,0.0,0.0,9.480981469878362,46.586325984410465,105.10937753364333,489.9573528511029,517.9465104663144,510.65061905515984,494.40622857147326,475.24274605040034,458.58134241851576,342.142004482772,10.46283782410128,0.0,0.0,0.0,0.0,0.0,0.0,0.0,0.0,0.0,0.0,0.0,0.0,0.0,91.29204770084488,109.9546731603254,78.14546917520097,194.63114190518897,389.8903776879107,56.61523478304992,52.515708701822554,195.42030435318983,92.82624422137596,241.72715062628583,115.0117849892668,8.661664631972497,0.0,0.0,0.0,0.0,0.0,0.0,0.0,0.0,0.0,0.0,0.0,0.0,88.45459315807935,164.56353780530782,206.6987816505744,405.6927489439658,609.537160174511,680.5522193465724,682.1614341054038,693.4810978865609,628.3799765004967,469.1309660477094,218.6237396486046,9.300055130448522,0.0,0.0,0.0,0.0,0.0,0.0,0.0,0.0,0.0,0.0,0.0,0.0,116.89974398648796,380.8903955106629,609.1708946581041,768.3706284249494,870.3593943398902,911.1524000979232,893.400290118988,816.629419839699,681.1200044442954,492.0497733213382,230.60606453474676,11.691813080960076,0.0,0.0,0.0,0.0,0.0,0.0,0.0,0.0,0.0,0.0,0.0,0.0,127.4361291030404,405.0698033769045,631.3924735992961,784.2149216377015,875.8460223567464,907.2668966377288,884.710677515884,804.5764895528038,672.1722408446878,486.2755753909981,229.6536270975043,11.207136423706965,0.0,0.0,0.0,0.0,0.0,0.0,0.0,0.0,0.0,0.0,0.0,0.0,121.5376362484578,373.0840858898974,581.7943859890108,723.6428425207795,799.8040057456484,823.884124767081,803.2673477471733,703.2231722446409,618.4437372903458,371.33513127540886,175.1580252828967,9.80311861081442,0.0,0.0,0.0,0.0,0.0,0.0,0.0,0.0,0.0,0.0,0.0,0.0,71.76671250091232,249.08702818187297,556.3676160427976,653.3000056017216,804.9582000006253,835.7995216170925,811.275176949255,738.2861084478045,623.325071090329,456.9353540134588,217.76029443522808,11.113731362294,0.0,0.0,0.0,0.0,0.0,0.0,0.0,0.0,0.0,0.0,0.0,0.0,73.39578502870539,208.08367716742964,231.9953728891491,320.60000252382883,380.4093962180323,381.72662822583254,197.98342749511255,287.5603523359965,208.38448559355487,87.42493106376317,157.6574470441444,10.011257448451188,0.0,0.0,0.0,0.0,0.0,0.0,0.0,0.0,0.0,0.0,0.0,0.0,44.451248084553434,23.77857512238285,133.1308959575333,159.43655604853782,222.90272112341285,356.71025217149673,423.26760994809376,342.11332103871604,218.03977414654247,150.18724854988062,45.826582453390024,0.0,0.0,0.0,0.0,0.0,0.0,0.0,0.0,0.0,0.0,0.0,0.0,0.0,100.94733625383247,133.18532095394715,449.29452580070847,708.2861678569784,786.4492883823675,383.1652132661771,346.949790990304,344.6448188448848,311.1425561875348,209.13908081410375,30.136738554785182,12.530987687827752,0.0,0.0,0.0,0.0,0.0,0.0,0.0,0.0,0.0,0.0,0.0,0.0,130.58248227410078,386.75946944826507,587.4266376449203,719.8941370245442,799.8319537167798,831.0468955788989,808.2825376194174,741.3581788534891,620.336109125114,451.8995708993283,220.6264324220496,17.580009314599526,0.0,0.0,0.0,0.0,0.0,0.0,0.0,0.0,0.0,0.0,0.0,0.0,56.04965610410054,374.0387297459134,582.1091684007018,585.4636604093989,728.2689672159572,632.7744272244533,820.4656466139512,331.9851233952675,488.12014148567306,232.96693262242883,132.51089228217006,18.737643697780705,0.0,0.0,0.0,0.0,0.0,0.0,0.0,0.0,0.0,0.0,0.0,0.0,4.406218290748682,18.578046073161698,35.32623551013866,260.93255510405595,109.17507186034317,63.80963093062189,459.0785221154855,107.8843168778254,134.08406886770027,104.81665930968774,82.79954184151005,10.36354897929222,0.0,0.0,0.0,0.0,0.0,0.0,0.0,0.0,0.0,0.0,0.0,0.0,75.79857507308462,246.14587195675128,494.518020455999,650.7126118532899,836.3673067148154,872.318694210789,845.7166385312062,774.1764516910436,649.3108004591709,474.9066349238986,234.90049094096972,22.632708305993862,0.0,0.0,0.0,0.0,0.0,0.0,0.0,0.0,0.0,0.0,0.0,0.0,7.835728537746029,7.776155230860595,108.89191478440624,107.33786049491331,262.8668488955213,183.58801594364803,371.9646960987908,157.70966562178472,123.89262055274376,104.3165377210199,51.15067095392913,1.3775407876101289,0.0,0.0,0.0,0.0,0.0,0.0,0.0,0.0,0.0,0.0,0.0,0.0,138.59693073250313,209.97751994804688,570.3511627565357,715.2863991524794,811.5428890937771,853.7134356394204,547.951599367612,530.7658035405507,654.5981153134845,391.1355333491088,235.63375744670773,22.49885223373276,0.0,0.0,0.0,0.0,0.0,0.0,0.0,0.0,0.0,0.0,0.0,0.0,170.87168907884336,441.4315847647555,649.9087399467987,796.9062424230727,877.7266266247223,898.9288400925412,870.9212956542169,792.4250058940239,663.640754920354,485.9078389287423,242.5604414497575,23.549843042859763,0.0,0.0,0.0,0.0,0.0,0.0,0.0,0.0,0.0,0.0,0.0,0.6832543468712279,168.09233689711425,423.07712246064534,617.7531282142295,754.2944121227227,834.1101403094895,857.7533884137622,839.9637693156769,762.5295024584785,634.4351250880003,462.3072482540913,229.53742237543153,23.917579505115537,0.0,0.0,0.0,0.0,0.0,0.0,0.0,0.0,0.0,0.0,0.0,0.1323851264120785,160.7398140707723,405.2794131603904,607.2160076247525,756.4633217771074,845.0164683070711,881.0509642435145,861.7499482855579,785.450516150881,659.0433136692322,478.9348201314483,238.53519813390577,26.25491245921323,0.0,0.0,0.0,0.0,0.0,0.0,0.0,0.0,0.0,0.0,0.0,1.7710188022238071,164.83713373322612,312.35020272958275,533.2958304008704,615.8276600978581,814.5061095066343,673.5894971702216,663.3862812884729,616.9485208348138,472.1022766627361,336.6818534911983,171.19456169270393,22.415008320338444,0.0,0.0,0.0,0.0,0.0,0.0,0.0,0.0,0.0,0.0,0.0,1.707768130715814,165.25194046265065,411.9038177914658,607.6874457693643,740.6631569398257,822.4205336473029,857.2304671644345,843.9926899961511,773.9543388678409,422.4379964892448,473.0878103815816,235.1130426161535,27.30958063296279,0.0,0.0,0.0,0.0,0.0,0.0,0.0,0.0,0.0,0.0,0.0,2.341010318720256,167.2752264779819,406.29951410668787,594.7556253376779,735.8546349593693,825.3028520384636,871.2802064413786,869.8886916682027,801.9707089812593,677.7875766233336,500.06937009021215,251.55674626238272,29.631468655645747,0.0,0.0,0.0,0.0,0.0,0.0,0.0,0.0,0.0,0.0,0.0,2.922033929084379,190.9854026183852,450.9927327834056,648.2127393828752,788.2541389391191,871.8318111347622,900.9388875952312,872.1760124634337,792.7898004645816,662.5206296563227,479.89828966255845,241.1674557307326,30.417689211948588,0.0,0.0,0.0,0.0,0.0,0.0,0.0,0.0,0.0,0.0,0.0,2.929388658329495,127.2713831679498,289.13573534030024,481.96055574288886,769.6054874652043,851.6783820572967,876.0137101835348,849.7771845474344,772.466477141554,653.4140039050209,478.8752468245629,244.64771360952125,31.331882057116445,0.0,0.0,0.0,0.0,0.0,0.0,0.0,0.0,0.0,0.0,0.0,4.360618969428967,178.32276527706986,416.84840226295694,602.9885092546601,735.005899204483,807.4080603121732,825.9993448979761,801.9192258765436,627.596697835892,606.0318962162889,439.7046943380023,223.95003456791727,32.2777002380383,0.0,0.0,0.0,0.0,0.0,0.0,0.0,0.0,0.0,0.0,0.0,3.982585886230031,58.55467688498687,287.9758945383455,190.4440945459447,450.9537527184065,578.1677689982444,577.1984156837382,697.0952118376107,294.2002018984868,177.4960937099189,294.5591126856484,117.0865541093139,30.550809811285184,0.0,0.0,0.0,0.0,0.0,0.0,0.0,0.0,0.0,0.0,0.0,5.368216876009788,175.338216149402,403.1855217443059,376.1112924471868,489.675666721015,549.1673361118295,344.46242155960596,387.0301234844853,207.3040758674474,153.24019665952804,35.282107134667974,26.797691477502756,0.6670739425319738,0.0,0.0,0.0,0.0,0.0,0.0,0.0,0.0,0.0,0.0,0.0,5.718301988077284,28.15169713152851,34.30834098261468,101.46731561146214,203.27000687650155,203.1648342482964,230.45823447691996,318.5568587395357,131.13555791333346,160.0587661426746,104.43421338894174,46.74445266318044,4.887217583379235,0.0,0.0,0.0,0.0,0.0,0.0,0.0,0.0,0.0,0.0,0.0,8.271128509056867,29.259319355842905,91.84218144837952,180.48652662098283,249.01127447064823,216.71298099072365,219.47026898471745,351.16405084775516,375.69354382606434,400.31202902823935,191.9746137018532,47.05702865609785,36.558888131620016,0.0,0.0,0.0,0.0,0.0,0.0,0.0,0.0,0.0,0.0,0.0,10.034792582035555,123.67786245878638,184.94790538106983,257.2515131168756,264.90116700472026,404.6660287413477,490.0081004828942,514.8604660750639,595.9294401251983,619.1247852184434,443.8623227802661,223.95591835131333,37.9526093235694,0.0,0.0,0.0,0.0,0.0,0.0,0.0,0.0,0.0,0.0,0.0,13.934270027795783,199.9434628389359,442.5252330035041,629.8545997141424,764.2836053834386,847.1088887773066,873.8014076266041,856.6332631497312,785.1754492771136,660.0626791426051,484.64429644443146,250.17920547477257,37.85920426215643,0.0,0.0,0.0,0.0,0.0,0.0,0.0,0.0,0.0,0.0,0.0,15.400803039271812,218.72449943926267,469.7627372898648,653.8317525261434,778.4907358662282,847.7914076512532,866.6724685693137,843.8007315628536,765.6074566475594,635.9215158684382,461.21360001534254,238.5175467837175,37.96511236328609,0.0,0.0,0.0,0.0,0.0,0.0,0.0,0.0,0.0,0.0,0.0,16.822472202352632,217.93460151833733,462.3300479147511,636.9313201937925,764.8594806833311,832.8201207998961,845.1826851880109,811.1449982416162,747.2206335347707,636.41575367371,469.8774710660886,246.0877695957149,39.38383963466887,0.0,0.0,0.0,0.0,0.0,0.0,0.0,0.0,0.0,0.0,0.0,19.763628427474313,204.57252942581155,431.70642628393927,602.410427535994,636.4929783307836,795.7280147980052,698.2285756142829,794.8402989781199,608.6810696903794,397.08992214595423,448.61200692676175,229.3653217110958,41.27988883405964,0.0,0.0,0.0,0.0,0.0,0.0,0.0,0.0,0.0,0.0,0.0,14.987467255696322,118.63766650710872,321.72086326078437,315.64732785016804,389.8491912041381,545.182543806826,839.4989504273856,808.5759913162975,409.7194632056665,341.9360720639088,301.6623101905809,128.04510068453595,28.66211534113953,0.0,0.0,0.0,0.0,0.0,0.0,0.0,0.0,0.0,0.0,0.0,23.519688652954787,142.01099604808573,421.99229989699074,522.7601807572424,626.420676629598,104.61293330959803,184.41983582127065,209.8951469805016,50.22838790659164,194.97534323386031,98.76665903265577,130.56777281561057,40.492197331907775,0.0,0.0,0.0,0.0,0.0,0.0,0.0,0.0,0.0,0.0,0.0,23.050456927116414,211.06234251170144,172.02785251617553,196.69046609382127,747.3353673109945,826.0684793528802,853.4288076176344,414.8765993523416,764.9800982429509,644.1632254605146,474.58449778296256,249.18778797253103,40.94304223463335,0.0,0.0,0.0,0.0,0.0,0.0,0.0,0.0,0.0,0.0,0.0,24.62436898557113,222.1429775923924,456.528637486204,623.8156315309781,745.0326015843489,814.9017939400214,836.5077820433971,816.3065472258384,747.522912906745,632.1764877368254,465.11675482572537,243.94239507491463,42.61550766497261,0.0,0.0,0.0,0.0,0.0,0.0,0.0,0.0,0.0,0.0,0.0,19.293661228711432,123.43368544784856,300.7701815331484,595.1821996338946,614.442764581003,641.7898543331158,814.149405138246,700.6990291677173,720.8524582451827,607.593305235027,446.36587261530343,234.9983088399297,43.84521839475592,0.0,0.0,0.0,0.0,0.0,0.0,0.0,0.0,0.0,0.0,0.0,28.17964510265995,212.27587283714547,433.6385136566311,479.8269487888808,544.9905853735283,779.4247864803577,804.0807808016831,784.248753392229,718.2738901718452,608.775210224717,445.959891560973,236.95319587328143,44.90577035190157,0.0,0.0,0.0,0.0,0.0,0.0,0.0,0.0,0.0,0.0,0.0,29.78812438856671,214.34990648426805,435.3631976646108,604.9125064251823,726.7450673163693,795.8567225597949,824.0562254314167,802.715007580865,729.528096862721,493.4802681595132,425.7557148517163,212.56491369647847,43.75769711673905,0.0,0.0,0.0,0.0,0.0,0.0,0.0,0.0,0.0,0.0,0.0,32.0166073498367,204.93144021297311,333.50240403853485,472.1081604461321,551.5826291959255,580.5168695191343,518.5562175207344,182.76869910574217,85.70318894748164,38.44537618299214,248.78989712037028,88.98854650127471,19.403246694463657,0.0,0.0,0.0,0.0,0.0,0.0,0.0,0.0,0.0,0.0,0.0,32.74693196387666,210.9439313708551,425.69393512605734,587.9789778112284,701.3977284460032,613.1520095984852,769.7202212414279,619.4226517528707,442.931949530759,590.6715441878653,437.8226191241773,233.98114978533027,46.52086889412893,0.0,0.0,0.0,0.0,0.0,0.0,0.0,0.0,0.0,0.0,0.0,30.70231723373456,176.76724004172794,373.3819524243245,537.6638040995444,587.4641467640703,602.663430222026,683.4360086835821,779.8006131447833,708.9407387597936,525.3056525489769,397.05535491850225,170.86506982252277,40.591486176716835,0.0,0.0,0.0,0.0,0.0,0.0,0.0,0.0,0.0,0.0,0.0,35.2012051129717,207.33790762197495,360.9855562816824,422.26810224368256,616.7521495639692,715.7122379757715,813.4073129574139,792.6125514897744,726.8252338651411,610.5785898356193,421.1516543442741,243.66144441775128,50.08349974046286,0.0,0.0,0.0,0.0,0.0,0.0,0.0,0.0,0.0,0.0,0.0,37.15167930877632,202.87285149726532,289.84546671245386,514.8531113458188,589.9029749817506,553.7588935795552,636.4973911683308,782.8094328789601,594.7467996625837,607.2888194442792,452.2400948633773,246.0782084476962,50.51154498252859,0.0,0.0,0.0,0.0,0.0,0.0,0.0,0.0,0.0,0.0,0.0,38.08352350413245,221.78186038645725,242.7391613704138,599.0309294478635,439.5789284679109,551.1266359827283,486.1534868855292,464.072383272919,24.708948371889957,99.7242447803698,4.9026625147939775,242.68620731984893,50.507132144981526,0.0,0.0,0.0,0.0,0.0,0.0,0.0,0.0,0.0,0.0,0.0,41.76088812669019,87.0388077783946,335.3263768913235,473.252556316672,326.30580147218933,807.5551548970756,835.4744425844584,823.9194274674575,760.6952329847468,649.6711821921816,249.94532508477795,265.18064671603463,55.10163150440516,0.0,0.0,0.0,0.0,0.0,0.0,0.0,0.0,0.0,0.0,0.0,43.132545130904234,252.4577005949094,494.1885285858178,679.8115981115893,813.2984629645862,891.5432209845961,918.0070077543708,889.5883339512445,813.6485480766537,684.5186248284633,511.17721766911006,277.4056776672656,55.685597006467326,0.0,0.0,0.0,0.0,0.0,0.0,0.0,0.0,0.0,0.0,0.0,44.64247104492644,265.81388890403906,505.3662460925443,677.2367074028743,801.6500427861724,867.2056864395846,887.0487459429062,869.8129379569779,786.0006498984155,660.8797895617375,485.7806021128018,262.0431192200684,58.7032424157382,0.0,0.0,0.0,0.0,0.0,0.0,0.0,0.0,0.0,0.0,0.0,48.83466671464226,250.23436594411095,476.6864794012165,652.21077020052,782.7961943663188,856.144173654931,874.5692413597942,851.4319986275855,772.3568916758019,653.6971609809578,484.0573890506713,264.3929552138828,57.31466953426041,0.0,0.0,0.0,0.0,0.0,0.0,0.0,0.0,0.0,0.0,0.0,45.71111320424171,249.37018525780988,467.9770090291508,625.6315141815971,730.2812211374209,788.5733341883571,817.2229464897798,806.5931563118145,746.9771919967574,639.6974338628804,479.3518332796464,265.46306831904707,59.5946356002462,0.0,0.0,0.0,0.0,0.0,0.0,0.0,0.0,0.0,0.0,0.0,48.228637024844744,246.8703127873951,461.97775638391,626.9318303121335,748.7327658675664,816.6853157819619,839.8210875683216,816.6036782873409,752.1255024683383,633.8246825606559,474.45799643994656,263.325048527492,60.42939736956681,0.0,0.0,0.0,0.0,0.0,0.0,0.0,0.0,0.0,0.0,0.0,43.3340647122204,181.76698498255743,54.58312309262452,372.29933627944354,405.4463655142545,324.8870742008066,657.503233365305,585.2812631241201,271.86609559984464,395.0342753219445,250.09168419675572,141.7484322140351,42.36691781648771,0.0,0.0,0.0,0.0,0.0,0.0,0.0,0.0,0.0,0.0,0.0,48.37793802852059,225.68575066976453,451.04200946934793,606.7666336678759,717.1089010594188,776.2776978363729,793.1023764574991,772.9232058276758,707.6926412068975,598.522717657026,445.6767344850361,246.50331179806392,60.8611199762551,0.0,0.0,0.0,0.0,0.0,0.0,0.0,0.0,0.0,0.0,0.0,52.24284824682877,236.4354229344253,441.2271232917413,597.1885697719621,716.41461461868,782.738827478207,466.9480824077591,783.6000662728098,720.6913896747147,609.4341939650793,452.6357792967644,250.28658452175128,59.963843008351006,0.0,0.0,0.0,0.0,0.0,0.0,0.0,0.0,0.0,0.0,0.0,49.78269131433765,232.68965932988797,439.65541765206,598.2976629421255,714.6965498670211,558.4445915816182,494.6106900444874,532.9964929205942,239.30744470464293,91.58550139772498,363.4221780805891,101.58646222523302,62.43650298055882,0.0,0.0,0.0,0.0,0.0,0.0,0.0,0.0,0.0,0.0,0.0,52.47231579927637,260.63395309670426,485.5871727336553,652.6101319985296,769.882760757745,838.4538434016547,857.2047256120767,833.1290194281911,761.1777032232263,643.0541322903512,480.14761498396786,267.8665938363508,63.54633162364675,0.0,0.0,0.0,0.0,0.0,0.0,0.0,0.0,0.0,0.0,0.0,44.6843930016236,166.53460524299877,353.63229798241593,630.3709017071495,745.3812157505674,808.2494413378145,828.3631548773562,807.7919771787682,741.0463383334964,630.6974516856326,473.2577046271437,264.75113052811986,63.368347175914955,0.0,0.0,0.0,0.0,0.0,0.0,0.0,0.0,0.0,0.0,0.0,50.36445039762628,204.73874630675112,471.13807165870134,632.1588363866371,645.3738138942607,797.6409798746598,812.8181991448802,786.98765456311,638.0654194433894,448.7966106308141,320.27786538289274,210.00620339210283,59.55859742694514,0.0,0.0,0.0,0.0,0.0,0.0,0.0,0.0,0.0,0.0,0.0,13.55255957997429,55.30535750449486,81.65955880851715,100.89217578449411,114.73892453427304,320.28080727459076,486.65140205542343,411.86116036184416,283.93373534523005,173.84814800434162,44.4107970737053,6.8259242123916755,0.0,0.0,0.0,0.0,0.0,0.0,0.0,0.0,0.0,0.0,0.0,0.0,49.94302441188117,191.09204619243937,332.5198122113875,445.48109868711606,599.2353909208776,592.0130468021744,342.00152915419034,404.55717874852,392.4343785337962,85.59360348172942,338.8316408495456,253.2667208118721,66.78682532904463,0.0,0.0,0.0,0.0,0.0,0.0,0.0,0.0,0.0,0.0,0.0,54.322765677347434,241.70802833024857,379.5533057339009,250.3012939802415,342.74656322672047,557.284015306739,267.77245330201333,245.81858650534363,718.3864175292955,609.3746206581939,456.0285158975362,258.64891167344757,66.40437940829862,0.0,0.0,0.0,0.0,0.0,0.0,0.0,0.0,0.0,0.0,0.0,0.0,0.0,4.198079453111914,70.47375109962101,178.20214771744998,289.6976366546271,401.8609350072607,525.0798623611518,150.04383132960086,49.074430888033014,33.66406670074256,39.78320143267864,11.107112105973394,0.0,0.0,0.0,0.0,0.0,0.0,0.0,0.0,0.0,0.0,0.0,55.269319331193785,140.43414209793295,329.72280867947006,618.7607261208103,731.2152717515505,796.2354911159183,653.6618582805812,518.5025279972451,513.3306823920799,554.0420506554921,469.4398646760042,265.9565706513943,67.86576410930307,0.0,0.0,0.0,0.0,0.0,0.0,0.0,0.0,0.0,0.0,0.0,58.50025188857302,259.30421804918734,474.11305963835053,640.8661003399293,759.4147746231722,831.3322590736093,858.1270086594141,832.2324779332115,758.5932513664927,575.4244549898162,483.6102215125682,219.53057776452735,66.15211219519115,0.0,0.0,0.0,0.0,0.0,0.0,0.0,0.0,0.0,0.0,0.0,61.006008142383855,264.72465350283744,474.8198491188062,627.7827724857934,735.0522339987272,797.1438001776901,820.8892790184698,805.2442989682603,747.911242610887,638.1485278838592,482.2238550498639,277.9006509454619,73.52007995294785,0.0,0.0,0.0,0.0,0.0,0.0,0.0,0.0,0.0,0.0,0.0,59.6770085677915,259.48808628031526,467.1782854331312,621.0943817102853,726.0699031716676,555.1739434863154,809.329851063922,778.2318493968,716.7624933119739,610.5366678789221,460.5428487081881,265.9367128824325,73.4156427976672,0.0,0.0,0.0,0.0,0.0,0.0,0.0,0.0,0.0,0.0,0.0,59.92265652457835,248.20151878076103,452.77037084195007,612.5099417353866,727.1054490493799,790.0832601023791,796.6069049427966,383.2983338655137,692.5411634890352,396.8928154021852,400.7665512955875,260.3640345334085,74.9888193831974,0.0,0.0,0.0,0.0,0.0,0.0,0.0,0.0,0.0,0.0,0.0,60.706670662107655,245.58764800704705,446.44089085360355,597.3268386817703,703.1157931976621,678.7238336562367,789.4191280515452,770.4652553139582,564.3820645011999,492.31013073661535,455.382770669815,264.5393143258605,74.45854340462458,0.0,0.0,0.0,0.0,0.0,0.0,0.0,0.0,0.0,0.0,0.0,58.97095456026041,261.189970627635,477.62862021751585,492.7109634804741,754.6746516246951,629.0433730784061,571.1476799337817,816.6750191610186,522.9043334504466,631.585167505518,366.19932384354473,276.0737362009752,75.41612915233861,0.0,0.0,0.0,0.0,0.0,0.0,0.0,0.0,0.0,0.0,0.0,59.629938300622754,254.5177602564662,459.9905085418798,611.9539242044559,723.7325702175699,500.1186467761544,648.5650309137161,779.9116695563845,720.5773913714153,614.286108848082,462.9544644276614,267.33705333070253,76.62745305900914,0.0,0.0,0.0,0.0,0.0,0.0,0.0,0.0,0.0,0.0,0.0,59.24602143402774,246.17676181958075,448.1251238507351,602.6788751534407,718.4496682008034,787.2950822455559,812.3519093107399,633.8702818819755,716.0917420048195,605.689901306391,364.8394344061229,265.5917760808366,76.88854594721073,0.0,0.0,0.0,0.0,0.0,0.0,0.0,0.0,0.0,0.0,0.0,61.418608453034835,243.60407752963937,439.03467850377234,590.3825033285323,563.8076601471564,761.0475245155878,221.31189318769435,527.70255880996,291.65693652552585,434.12171936803514,383.8455257213503,234.1238315326855,73.74366372199935,0.0,0.0,0.0,0.0,0.0,0.0,0.0,0.0,0.0,0.0,0.0,60.356585550040165,248.17798364717663,446.2629064058718,595.2057347674789,699.5156532321781,755.7903640511793,772.3907234303293,755.1218191627981,499.1728285952326,397.7974470993344,447.3690576843373,0.7384148162095939,0.0,0.0,0.0,0.0,0.0,0.0,0.0,0.0,0.0,0.0,0.0,0.0,62.168790836036614,241.75730501619083,432.4882340026951,577.4021416838278,682.27984524625,739.0701225853337,755.1137289606286,681.1538361988229,561.4033991569281,508.82738167529567,434.3710446894446,217.9390143558844,58.80032484177373,0.0,0.0,0.0,0.0,0.0,0.0,0.0,0.0,0.0,0.0,0.0,60.90083551417872,244.77421495253725,440.03197978941,588.1974132698084,681.8422388561656,742.5709737060087,454.5693376153053,627.8394039009809,681.3141692963665,579.1180000167134,437.84615425776167,257.62660430837656,81.59042435361306,0.0,0.0,0.0,0.0,0.0,0.0,0.0,0.0,0.0,0.0,0.0,62.944714771396306,184.50073784296688,423.4963420276169,562.1734393088918,658.6410099795245,717.6693314278967,739.7048357191871,631.0622462561904,565.4911576713633,383.4505767608876,268.46232690520515,180.5049134440956,60.47867405550908,0.0,0.0,0.0,0.0,0.0,0.0,0.0,0.0,0.0,0.0,0.0,31.644458050033855,169.60446922990997,256.52486586745823,416.6468826816408,628.7697771504879,651.7312418537383,689.1028275669437,622.2917316313901,630.6739165520482,513.9124414753685,280.16737849880644,236.55971785866777,56.67627903578438,0.0,0.0,0.0,0.0,0.0,0.0,0.0,0.0,0.0,0.0,0.0,32.68588771114221,80.88951865655356,269.23825084056483,403.2487724158139,497.0156865076403,512.1325969980505,631.8874468774924,656.4801905273094,624.7761591703902,503.39444318192886,365.105675604796,262.3836431841172,36.941334052366024,0.0,0.0,0.0,0.0,0.0,0.0,0.0,0.0,0.0,0.0,0.0,0.0,114.25351240409542,236.49058340376368,150.93007620363727,260.27945514708966,401.3291880828387,368.05492203208735,755.168889429967,652.6814728722075,488.4989100417965,189.45488346247663,143.8680651824774,51.49119491797797,0.0,0.0,0.0,0.0,0.0,0.0,0.0,0.0,0.0,0.0,0.0,54.80008760535542,242.2478654568401,301.7888115335969,582.7049014695561,410.7800151628122,407.19973296629,395.9675904631496,552.5541889292052,545.9709707819023,122.75337299267537,126.19685722523845,197.1758782239989,84.00718838355802,0.0,0.0,0.0,0.0,0.0,0.0,0.0,0.0,0.0,0.0,0.0,20.477772637175025,80.60415516184308,117.72788649948797,320.55587414835816,571.0917839915188,418.21417548377497,619.8315746988991,215.78922699753713,223.94562173037025,155.1325684942963,87.51245234178005,79.89736568138747,13.678325450065763,0.0,0.0,0.0,0.0,0.0,0.0,0.0,0.0,0.0,0.0,0.0,63.60222756590962,243.90341500991556,215.00962569755487,383.8043392375776,585.8747897742008,622.8161238265669,643.0195650628991,620.3184577749256,716.7396936513142,611.7266630707818,323.52718476338475,273.39808570160216,89.08709987315926,0.0,0.0,0.0,0.0,0.0,0.0,0.0,0.0,0.0,0.0,0.0,61.106767933041944,260.1250058329423,467.9718607186792,462.42198203031506,731.7793794846507,401.63955765698273,623.3508126426868,797.8204352682405,729.1302060105602,616.6013776144443,463.5200431066108,83.42469382734487,79.73776805676847,0.0,0.0,0.0,0.0,0.0,0.0,0.0,0.0,0.0,0.0,0.0,60.48455783890518,247.9301292716163,449.1746437140131,600.8004773042383,713.9029745814731,613.4984173459301,795.395581036126,775.7312414534609,713.6676232456293,460.63036998620487,347.26310245614593,272.939150596707,75.98832708760861,0.0,0.0,0.0,0.0,0.0,0.0,0.0,0.0,0.0,0.0,0.0,58.78267349158545,247.4116208598357,447.7625356989509,598.5388980613653,709.31509447837,772.8025882680558,574.4462760002159,777.2374900028606,716.7808801350867,613.9257271150713,470.2076984091943,281.33310308415724,87.47862058725251,0.0,0.0,0.0,0.0,0.0,0.0,0.0,0.0,0.0,0.0,0.0,57.80890733953216,238.43370287032317,431.75643844280614,580.3550654757418,680.7206426462856,739.3326864193843,584.1729054268812,743.6793314032477,686.0520858760698,593.1486169976201,454.9679639403905,274.5851390017638,88.80026543259977,0.0,0.0,0.0,0.0,0.0,0.0,0.0,0.0,0.0,0.0,0.0,59.88294098665474,239.6259044809564,436.58334724637535,586.8375238323865,698.1837117658878,765.645701239634,589.1366121944096,411.209531350727,713.5521539964811,608.8619960298093,470.6019118967325,215.25527365434172,65.8998449820837,0.0,0.0,0.0,0.0,0.0,0.0,0.0,0.0,0.0,0.0,0.0,60.886861528613,246.86589994984809,451.42666180886744,604.0821574934088,715.8806612754846,786.1470090103934,816.1646009514077,799.1531122074556,738.8399195599617,637.9367116815998,492.4388384984048,298.1445431926422,95.17387379641684,0.0,0.0,0.0,0.0,0.0,0.0,0.0,0.0,0.0,0.0,0.0,59.77041362920446,256.26597939803014,459.81620145877065,609.9056321096912,711.2133500965343,692.9802408249685,379.9306033441754,787.3840744694219,623.3059487942917,624.3253142676646,481.11329093385154,281.9133912215969,82.48696584859265,0.0,0.0,0.0,0.0,0.0,0.0,0.0,0.0,0.0,0.0,0.0,45.88909765197351,103.96424619017886,289.4416920768971,479.8504839224652,691.2062801310467,657.9842326579355,614.4361453246823,475.5700315018081,341.5153815510882,474.3748879994767,292.1967736521173,203.3038386310291,45.33969937736338,0.0,0.0,0.0,0.0,0.0,0.0,0.0,0.0,0.0,0.0,0.0,0.0,64.38182886589186,71.88218175006064,165.52112355302185,253.58003227771405,303.58630736110314,371.3902917447473,546.2835467748198,463.7156789045308,462.1660374525851,307.54830000544683,260.4956841868961,75.82431662544253,0.0,0.0,0.0,0.0,0.0,0.0,0.0,0.0,0.0,0.0,0.0,3.3250730917167073,63.180066107239995,149.09286483820745,454.7811538175646,523.4838861149617,483.00860466031776,287.9516239318367,651.4326398463867,721.0856031622528,489.86983157308606,444.86183048467734,274.51306265516166,95.7063561937632,0.0,0.0,0.0,0.0,0.0,0.0,0.0,0.0,0.0,0.0,0.0,56.3842962847533,234.4481750923951,430.0758828102972,587.9635328798138,709.9564268685442,585.6181097235464,623.0772167147686,701.8051804461827,668.0771276010076,563.3060676126395,366.77078630589017,185.8981363995388,72.29919489825868,0.0,0.0,0.0,0.0,0.0,0.0,0.0,0.0,0.0,0.0,0.0,52.56719180653837,70.84075208895227,227.690649861983,288.54220869021947,570.183474929747,399.969298645417,446.8895293375557,556.547806909303,602.5663477959905,384.8810715990626,322.4423621997302,242.93111980371128,88.11333372110597,0.0,0.0,0.0,0.0,0.0,0.0,0.0,0.0,0.0,0.0,0.0,54.54561397347443,107.69824222792398,441.05355168155654,331.348939315565,330.138350881819,538.9082242878179,515.1826032159998,495.88085178511886,305.39483528247706,497.23265102037107,68.9557349834292,274.1798934203579,81.33521524880756,0.0,0.0,0.0,0.0,0.0,0.0,0.0,0.0,0.0,0.0,0.0,34.44587441949834,44.910183189448645,151.42284306306,350.6234782482392,341.8787051757969,639.2105507868539,636.5172489372925,776.5152555909903,654.5914960571639,571.7338518546173,395.6498661597607,261.5878614797957,95.53940383989908,0.3596462600861468,0.0,0.0,0.0,0.0,0.0,0.0,0.0,0.0,0.0,0.0,45.843498330653794,207.12829783848915,348.4641297418733,252.38268235660917,348.8737881608262,309.2237073274842,332.2285649332809,264.376039336619,239.856842979253,370.01128001128814,395.5630803546683,292.44021519013063,93.1189624453316,0.8862448740364152,0.0,0.0,0.0,0.0,0.0,0.0,0.0,0.0,0.0,0.0,0.0,80.7328629236326,175.6051928209997,323.4345151748963,293.67728064915906,431.2298398288558,510.13358158922824,474.8808933715407,499.02573401033027,434.209240646052,216.5813313372361,185.85033065944555,1.7099745494893488,0.0,0.0,0.0,0.0,0.0,0.0,0.0,0.0,0.0,0.0,0.0,49.03324440426037,235.11892639954965,437.85277351408234,51.95674927919379,214.9713811054803,604.5035834791539,666.5583760118913,653.4176812696434,715.7240055425636,617.7450380120598,476.79532939404424,292.34607465579313,96.25207710375078,0.8568259570559532,0.0,0.0,0.0,0.0,0.0,0.0,0.0,0.0,0.0,0.0,50.62774970460141,232.71245899054784,433.2685707756019,584.2045307626353,684.758389001854,749.4469100772671,773.2593169541775,762.6155527906463,716.5293483949038,622.0504965121505,447.68825293357526,250.2167145939227,89.94392583021522,0.3339047077282427,0.0,0.0,0.0,0.0,0.0,0.0,0.0,0.0,0.0,0.0,43.55176469787582,233.05004106289863,435.03591221320306,585.8240421424097,695.6161757864179,760.8099667609705,787.339946093951,760.0244816775923,706.7659453220131,610.5484354457143,441.2131493061755,245.78696116958963,65.74318924916274,0.0,0.0,0.0,0.0,0.0,0.0,0.0,0.0,0.0,0.0,0.0,48.001375891170674,208.7353061785469,328.48500774751705,483.21527255210555,625.9021682178173,658.3468208097198,510.9926139650576,534.4578776215986,293.5647532917088,551.3847869792319,384.4022787252056,213.1253440649563,82.04126925633865,0.0,0.0,0.0,0.0,0.0,0.0,0.0,0.0,0.0,0.0,0.0,2.422647813341038,202.0726569553968,300.84299335267514,419.2769338596941,666.7598955932074,732.2647916148285,758.8528733088453,745.3356164292476,696.0817301476337,486.7668713045718,324.35900464100735,11.648420178413891,22.144354284118194,0.0,0.0,0.0,0.0,0.0,0.0,0.0,0.0,0.0,0.0,0.0,9.268429794694525,159.9947799982421,337.1937426466583,502.77076214194307,605.0014986490482,604.4373909159478,666.1766655640697,654.0082660280261,516.9425899243561,445.5892132070193,386.50058297883703,244.53665719791996,90.15647750539908,0.0,0.0,0.0,0.0,0.0,0.0,0.0,0.0,0.0,0.0,0.0,50.21441392102592,214.31239736511796,425.5122733137031,572.4340220787524,667.3181195429116,730.6570478018461,659.9185264494009,452.9005495495885,559.1454972786778,520.5574393483303,359.28514288021165,237.20105024884185,61.77163545680039,0.0,0.0,0.0,0.0,0.0,0.0,0.0,0.0,0.0,0.0,0.0,52.373762427391824,216.31361919271387,406.84082217912834,457.7686448369304,313.9336759360561,621.4069577032028,658.9344636764044,540.4446272271226,626.5795387812925,535.660375853175,344.6845343828084,108.08510098621706,80.6122453640127,0.0,0.0,0.0,0.0,0.0,0.0,0.0,0.0,0.0,0.0,0.0,48.83687313341579,218.95543793755937,414.36985850735306,564.6652215771369,676.1327625431826,740.680808290014,500.44960959218463,747.3787602135407,701.9758101646694,608.9024470406574,471.68232162283994,290.3985423516866,97.74729355928274,0.0,0.0,0.0,0.0,0.0,0.0,0.0,0.0,0.0,0.0,0.0,42.149217830832285,222.51292047342167,422.5012471607528,575.4310742461369,681.3472655779694,746.2284805596046,642.4451607088556,538.0771398831199,226.68893573879828,502.9435982792033,419.5703875565742,194.39873246104327,77.62769623634485,0.0,0.0,0.0,0.0,0.0,0.0,0.0,0.0,0.0,0.0,0.0,38.221792413940626,218.81496260897768,227.26701745746433,448.99004000996064,665.3477875781452,564.0334503349815,454.27514844550063,125.92326129732014,482.84312325230263,541.0403602959769,466.3780908912627,248.5714616617904,93.4263901277774,0.3324337618792196,0.0,0.0,0.0,0.0,0.0,0.0,0.0,0.0,0.0,0.0,45.83982096603123,218.3339633163471,414.7559817927217,568.9736219689255,481.711965894404,551.2494599611218,670.9167885625467,575.6009684916991,347.2035291492605,45.51106456877458,216.48424891120052,214.81766726425735,87.49994930206334,0.0,0.0,0.0,0.0,0.0,0.0,0.0,0.0,0.0,0.0,0.0,20.321116904254065,155.68196676890636,287.8780766393855,489.9507335947823,588.2488963745242,567.3276335638687,400.61872123776067,653.7089285477499,560.027329315167,464.1657883343319,257.55232154300086,223.80073356424143,62.05185064103929,0.0,0.0,0.0,0.0,0.0,0.0,0.0,0.0,0.0,0.0,0.0,38.29754612516532,168.0585051425867,285.99967879018305,376.1958718335057,334.23787696304635,743.4005871648577,601.6675998822374,770.8175468447992,622.885258281471,502.3964064233666,365.5212178071451,247.57636679492623,93.85002253229604,0.0,0.0,0.0,0.0,0.0,0.0,0.0,0.0,0.0,0.0,0.0,39.89058047965733,193.5838284606845,389.528525009051,422.192348532458,692.4323134962075,763.3017490292157,788.4681615601519,690.8547240731301,628.9904190278413,542.2494777838739,392.6837038552056,292.19309628749477,98.37759385558913,0.0,0.0,0.0,0.0,0.0,0.0,0.0,0.0,0.0,0.0,0.0,39.73024738211382,216.12607359696344,419.81309362166303,342.89439328454733,207.9990977811108,754.4363583971534,140.48488972972427,656.4743067439134,592.6190764919718,509.22012421698486,342.63771323389284,87.95888440695855,56.4607854689025,0.0,0.0,0.0,0.0,0.0,0.0,0.0,0.0,0.0,0.0,0.0,42.121269859700845,210.77109523359485,407.75133765967365,562.505873070771,469.93042511665345,447.863295489609,488.2966549875558,751.4621058904288,693.6929140888203,460.1567254228195,139.71999788823229,189.892489852561,76.72453548504467,0.0,0.0,0.0,0.0,0.0,0.0,0.0,0.0,0.0,0.0,0.0,42.3154347117719,210.4673449157716,406.4672019334764,559.6353222464024,662.026391851051,729.4185113969687,754.2333678699883,738.987014144864,688.3747093716773,593.7781818210019,459.7014676825469,206.91206879868275,4.048042976511558,0.0,0.0,0.0,0.0,0.0,0.0,0.0,0.0,0.0,0.0,0.0,43.25536910929766,135.1688914313548,244.69257745791649,367.7261656348307,511.966380117111,440.0238895872404,604.8264560930145,761.3836356420896,706.7556487010698,223.1240984736908,49.72311800745221,151.96120924380244,76.06040343421073,0.0,0.0,0.0,0.0,0.0,0.0,0.0,0.0,0.0,0.0,0.0,42.989863383548986,97.24423007891684,188.60761865343937,352.61293250904293,333.637731056645,559.2300766649967,623.0220562454302,644.7207139372944,648.9474768344622,605.5832577323368,463.1795191425619,229.2741230684564,89.293767764947,0.0,0.0,0.0,0.0,0.0,0.0,0.0,0.0,0.0,0.0,0.0,41.25046991707919,99.06158367538488,415.5554408616657,443.6203521881019,591.427610354263,666.2634513691621,641.5706834016114,679.6115494761223,724.495991113213,456.42199391214984,362.44252814513976,90.2417923646424,71.29012604582883,0.0,0.0,0.0,0.0,0.0,0.0,0.0,0.0,0.0,0.0,0.0,38.718236637985925,210.71667023718095,416.94916205361505,580.9154958442195,683.4720468568833,755.6756302749556,783.413256149984,774.2477925647211,711.670078782656,609.0252710190509,304.75791572985,70.37593320066098,26.34022731845657,0.0,0.0,0.0,0.0,0.0,0.0,0.0,0.0,0.0,0.0,0.0,33.6728923758367,176.89447685766842,384.6854358011425,382.06273935233435,480.1439376193453,749.2336229291589,776.721923482778,756.9009281671916,698.171208726171,601.1115823513067,468.1697029353728,285.7805078586786,90.39624167878983,0.0,0.0,0.0,0.0,0.0,0.0,0.0,0.0,0.0,0.0,0.0,37.053861409816285,207.5813491599883,409.20316121265944,562.7471081900107,676.0334736983735,745.1833735338738,343.51954527038214,735.7487268582396,432.90451167796857,506.7754122159085,387.0102657155235,269.7655849274396,93.93827928323742,0.0,0.0,0.0,0.0,0.0,0.0,0.0,0.0,0.0,0.0,0.0,37.58487286131363,195.10993477904597,381.6118944496087,532.4581267398517,638.6927778479977,706.7137267443728,554.2803438830339,716.7948541206525,588.6423743891379,565.9155255488065,429.5095686584232,261.3679550753668,50.37695343734297,0.0,0.0,0.0,0.0,0.0,0.0,0.0,0.0,0.0,0.0,0.0,33.35884543707027,189.36515576568624,371.7425832755883,522.4042118617789,635.9649087709844,701.7147172764678,546.9984264574449,326.0219089233279,657.050182043806,563.7708865009309,430.33697569849875,250.83377637758787,0.0,0.0,0.0,0.0,0.0,0.0,0.0,0.0,0.0,0.0,0.0,0.0,36.06832769097081,194.65835440339583,215.97530164743856,281.87367568367324,662.9369073315963,735.9149437391792,761.3402427395434,748.0811368564492,690.5951021307777,590.0647790251431,448.62745185817647,231.73428000094748,71.47546522280575,0.0,0.0,0.0,0.0,0.0,0.0,0.0,0.0,0.0,0.0,0.0,24.569208516232763,127.41038755068249,134.7599684853264,383.154916645234,539.516460396389,242.49424888655145,133.22283007309727,294.16048636056314,536.0920984598632,217.9390143558844,17.50131371167679,101.87991592211311,39.14775282590067,0.0,0.0,0.0,0.0,0.0,0.0,0.0,0.0,0.0,0.0,0.0,35.193114910802066,198.13346397171293,401.8609350072607,558.5387321159557,670.8910470101888,741.0088292143463,766.5878420559333,745.3532677794359,528.8763735974804,594.4290753591947,453.6852991600424,271.86609559984464,79.52006807111306,0.0,0.0,0.0,0.0,0.0,0.0,0.0,0.0,0.0,0.0,0.0,34.39439131478253,193.50072002021463,386.4829316286487,536.4980795141936,269.91488593111546,545.1634215107887,661.610849648702,647.9729752094844,483.9860481769937,524.1134509383437,411.81482556759994,200.4435844276037,53.598324846703555,0.0,0.0,0.0,0.0,0.0,0.0,0.0,0.0,0.0,0.0,0.0,32.47186509010935,190.3153867841552,169.67581010358762,93.7073407849408,381.3831623700856,646.7594448840404,600.2569628130242,609.4327230192303,539.3281793277141,454.6208207200211,75.72502778063347,91.63845544828985,51.341158441377615,0.0,0.0,0.0,0.0,0.0,0.0,0.0,0.0,0.0,0.0,0.0,30.914868908918397,191.78633263317823,390.68983675685473,549.5218340614441,667.5821543228112,739.8732590189003,634.5204399472437,496.4376047889741,583.8228203148137,616.677131325669,473.4761400857235,268.5233711579396,71.69978446478177,0.0,0.0,0.0,0.0,0.0,0.0,0.0,0.0,0.0,0.0,0.0,31.26642496683492,188.95034903626177,389.42188143499686,547.9221804506315,153.9565472880023,539.8018238910995,771.9259045420381,298.8454488897017,509.260575227833,421.2185823804046,429.52427811691354,225.51585642420235,65.75936965350199,0.0,0.0,0.0,0.0,0.0,0.0,0.0,0.0,0.0,0.0,0.0,30.539777717417508,189.45708988125017,392.9999572127455,555.9263322880906,374.719777674011,141.6329629648868,248.5714616617904,245.08605547253012,416.1732381182553,454.50388052502376,427.45907014488506,262.9381897691989,80.80273285146119,0.0,0.0,0.0,0.0,0.0,0.0,0.0,0.0,0.0,0.0,0.0,21.47580939573719,57.03518982294602,139.41477662455998,479.8034136552965,239.93406763632672,520.7530751462504,532.8604304295595,579.0113564426591,87.1653091214106,108.71760770129696,55.5502699883572,106.6671091877588,42.936909332984165,0.0,0.0,0.0,0.0,0.0,0.0,0.0,0.0,0.0,0.0,0.0,27.844269449082688,164.16932431776965,184.3999780523088,45.78613144254189,529.0499452076651,402.48682246602,671.7934722885644,686.8780219702962,497.3503266882929,480.7352578506526,386.9337765313743,253.36968702130372,77.81744825086881,0.0,0.0,0.0,0.0,0.0,0.0,0.0,0.0,0.0,0.0,0.0,14.276264937693654,92.76519996864153,324.7443924534514,296.3852919572106,461.6813607953319,582.3415778448475,239.20374302228677,214.33004871530625,274.8432899982674,492.36749762472726,463.69067282509747,271.031333830524,80.98071729919297,0.0,0.0,0.0,0.0,0.0,0.0,0.0,0.0,0.0,0.0,0.0,25.55400676215373,187.48087413308767,395.2630074014676,553.3021648934335,663.6635545810137,570.6424100346422,758.4189442833837,516.6969419675693,389.2240392183032,461.3070050767556,448.5075697714811,264.15466198634107,70.51567305631818,0.0,0.0,0.0,0.0,0.0,0.0,0.0,0.0,0.0,0.0,0.0,25.523116899324243,187.94495754845445,396.23456713474735,558.8733722966084,675.5914544707421,562.9670145944397,557.7848723683313,346.36067717777024,235.74260743953545,282.7959587310107,385.7261299893263,261.34074257715986,76.90472635154998,0.0,0.0,0.0,0.0,0.0,0.0,0.0,0.0,0.0,0.0,0.0,25.79377093554449,183.16217712035584,385.94603639375526,548.6098476350497,671.8729033644116,741.2802187234909,527.4414659217583,750.2846137382859,477.8080756110966,530.0472464933029,316.0224190416689,146.92395518382287,49.00088359558187,0
...